# generated using pymatgen
data_Li7La3Zr2O12
_symmetry_space_group_name_H-M   'P 1'
_cell_length_a   11.22807710
_cell_length_b   11.22807710
_cell_length_c   11.22807710
_cell_angle_alpha   109.47122063
_cell_angle_beta   109.47122063
_cell_angle_gamma   109.47122063
_symmetry_Int_Tables_number   1
_chemical_formula_structural   Li7La3Zr2O12
_chemical_formula_sum   'Li28 La12 Zr8 O48'
_cell_volume   1089.66817527
_cell_formula_units_Z   4
loop_
 _symmetry_equiv_pos_site_id
 _symmetry_equiv_pos_as_xyz
  1  'x, y, z'
loop_
 _atom_type_symbol
 _atom_type_oxidation_number
  Li+  1.0
  La3+  3.0
  Zr4+  4.0
  O2-  -2.0
loop_
 _atom_site_type_symbol
 _atom_site_label
 _atom_site_symmetry_multiplicity
 _atom_site_fract_x
 _atom_site_fract_y
 _atom_site_fract_z
 _atom_site_occupancy
  Li+  Li0  1  0.28680000  0.67310000  0.76170000
  0.3333333333333333
  Li+  Li1  1  0.91140000  0.02510000  0.73830000
  0.3333333333333333
  Li+  Li2  1  0.21320000  0.47490000  0.88630000
  0.3333333333333333
  Li+  Li3  1  0.58860000  0.82690000  0.61370000
  0.3333333333333333
  Li+  Li4  1  0.91140000  0.38630000  0.17310000
  0.3333333333333333
  Li+  Li5  1  0.28680000  0.11370000  0.52510000
  0.3333333333333333
  Li+  Li6  1  0.58860000  0.26170000  0.97490000
  0.3333333333333333
  Li+  Li7  1  0.21320000  0.23830000  0.32690000
  0.3333333333333333
  Li+  Li8  1  0.61370000  0.08860000  0.32690000
  0.3333333333333333
  Li+  Li9  1  0.88630000  0.71320000  0.97490000
  0.3333333333333333
  Li+  Li10  1  0.76170000  0.78680000  0.17310000
  0.3333333333333333
  Li+  Li11  1  0.73830000  0.41140000  0.52510000
  0.3333333333333333
  Li+  Li12  1  0.76170000  0.47490000  0.58860000
  0.3333333333333333
  Li+  Li13  1  0.88630000  0.67310000  0.91140000
  0.3333333333333333
  Li+  Li14  1  0.73830000  0.82690000  0.21320000
  0.3333333333333333
  Li+  Li15  1  0.61370000  0.02510000  0.28680000
  0.3333333333333333
  Li+  Li16  1  0.52510000  0.23830000  0.91140000
  0.3333333333333333
  Li+  Li17  1  0.17310000  0.26170000  0.28680000
  0.3333333333333333
  Li+  Li18  1  0.97490000  0.38630000  0.21320000
  0.3333333333333333
  Li+  Li19  1  0.32690000  0.11370000  0.58860000
  0.3333333333333333
  Li+  Li20  1  0.97490000  0.08860000  0.76170000
  0.3333333333333333
  Li+  Li21  1  0.32690000  0.71320000  0.73830000
  0.3333333333333333
  Li+  Li22  1  0.17310000  0.41140000  0.88630000
  0.3333333333333333
  Li+  Li23  1  0.52510000  0.78680000  0.61370000
  0.3333333333333333
  Li+  Li24  1  0.71320000  0.32690000  0.23830000
  0.3333333333333333
  Li+  Li25  1  0.08860000  0.97490000  0.26170000
  0.3333333333333333
  Li+  Li26  1  0.78680000  0.52510000  0.11370000
  0.3333333333333333
  Li+  Li27  1  0.41140000  0.17310000  0.38630000
  0.3333333333333333
  Li+  Li28  1  0.08860000  0.61370000  0.82690000
  0.3333333333333333
  Li+  Li29  1  0.71320000  0.88630000  0.47490000
  0.3333333333333333
  Li+  Li30  1  0.41140000  0.73830000  0.02510000
  0.3333333333333333
  Li+  Li31  1  0.78680000  0.76170000  0.67310000
  0.3333333333333333
  Li+  Li32  1  0.38630000  0.91140000  0.67310000
  0.3333333333333333
  Li+  Li33  1  0.11370000  0.28680000  0.02510000
  0.3333333333333333
  Li+  Li34  1  0.23830000  0.21320000  0.82690000
  0.3333333333333333
  Li+  Li35  1  0.26170000  0.58860000  0.47490000
  0.3333333333333333
  Li+  Li36  1  0.23830000  0.52510000  0.41140000
  0.3333333333333333
  Li+  Li37  1  0.11370000  0.32690000  0.08860000
  0.3333333333333333
  Li+  Li38  1  0.26170000  0.17310000  0.78680000
  0.3333333333333333
  Li+  Li39  1  0.38630000  0.97490000  0.71320000
  0.3333333333333333
  Li+  Li40  1  0.47490000  0.76170000  0.08860000
  0.3333333333333333
  Li+  Li41  1  0.82690000  0.73830000  0.71320000
  0.3333333333333333
  Li+  Li42  1  0.02510000  0.61370000  0.78680000
  0.3333333333333333
  Li+  Li43  1  0.67310000  0.88630000  0.41140000
  0.3333333333333333
  Li+  Li44  1  0.02510000  0.91140000  0.23830000
  0.3333333333333333
  Li+  Li45  1  0.67310000  0.28680000  0.26170000
  0.3333333333333333
  Li+  Li46  1  0.82690000  0.58860000  0.11370000
  0.3333333333333333
  Li+  Li47  1  0.47490000  0.21320000  0.38630000
  0.3333333333333333
  Li+  Li48  1  0.37500000  0.12500000  0.75000000  1.0
  Li+  Li49  1  0.12500000  0.37500000  0.25000000  1.0
  Li+  Li50  1  0.37500000  0.75000000  0.62500000  1.0
  Li+  Li51  1  0.12500000  0.25000000  0.87500000  1.0
  Li+  Li52  1  0.25000000  0.62500000  0.87500000  1.0
  Li+  Li53  1  0.75000000  0.87500000  0.62500000  1.0
  Li+  Li54  1  0.75000000  0.37500000  0.12500000  1.0
  Li+  Li55  1  0.25000000  0.12500000  0.37500000  1.0
  Li+  Li56  1  0.62500000  0.25000000  0.37500000  1.0
  Li+  Li57  1  0.87500000  0.75000000  0.12500000  1.0
  Li+  Li58  1  0.87500000  0.62500000  0.75000000  1.0
  Li+  Li59  1  0.62500000  0.87500000  0.25000000  1.0
  La3+  La60  1  0.12500000  0.87500000  0.75000000  1.0
  La3+  La61  1  0.37500000  0.62500000  0.25000000  1.0
  La3+  La62  1  0.12500000  0.75000000  0.37500000  1.0
  La3+  La63  1  0.37500000  0.25000000  0.12500000  1.0
  La3+  La64  1  0.25000000  0.87500000  0.12500000  1.0
  La3+  La65  1  0.75000000  0.62500000  0.37500000  1.0
  La3+  La66  1  0.87500000  0.12500000  0.25000000  1.0
  La3+  La67  1  0.62500000  0.37500000  0.75000000  1.0
  La3+  La68  1  0.87500000  0.25000000  0.62500000  1.0
  La3+  La69  1  0.62500000  0.75000000  0.87500000  1.0
  La3+  La70  1  0.75000000  0.12500000  0.87500000  1.0
  La3+  La71  1  0.25000000  0.37500000  0.62500000  1.0
  Zr4+  Zr72  1  1.00000000  0.00000000  0.00000000  1.0
  Zr4+  Zr73  1  1.00000000  0.50000000  0.50000000  1.0
  Zr4+  Zr74  1  0.50000000  0.00000000  0.50000000  1.0
  Zr4+  Zr75  1  0.50000000  0.50000000  0.00000000  1.0
  Zr4+  Zr76  1  0.00000000  0.00000000  0.50000000  1.0
  Zr4+  Zr77  1  0.00000000  0.50000000  0.00000000  1.0
  Zr4+  Zr78  1  0.50000000  0.50000000  0.50000000  1.0
  Zr4+  Zr79  1  0.50000000  0.00000000  0.00000000  1.0
  O2-  O80  1  0.29560000  0.81840000  0.91400000  1.0
  O2-  O81  1  0.90440000  0.88160000  0.58600000  1.0
  O2-  O82  1  0.20440000  0.61840000  0.02280000  1.0
  O2-  O83  1  0.59560000  0.68160000  0.47720000  1.0
  O2-  O84  1  0.90440000  0.52280000  0.31840000  1.0
  O2-  O85  1  0.29560000  0.97720000  0.38160000  1.0
  O2-  O86  1  0.59560000  0.41400000  0.11840000  1.0
  O2-  O87  1  0.20440000  0.08600000  0.18160000  1.0
  O2-  O88  1  0.47720000  0.09560000  0.18160000  1.0
  O2-  O89  1  0.02280000  0.70440000  0.11840000  1.0
  O2-  O90  1  0.91400000  0.79560000  0.31840000  1.0
  O2-  O91  1  0.58600000  0.40440000  0.38160000  1.0
  O2-  O92  1  0.91400000  0.61840000  0.59560000  1.0
  O2-  O93  1  0.02280000  0.81840000  0.90440000  1.0
  O2-  O94  1  0.58600000  0.68160000  0.20440000  1.0
  O2-  O95  1  0.47720000  0.88160000  0.29560000  1.0
  O2-  O96  1  0.38160000  0.08600000  0.90440000  1.0
  O2-  O97  1  0.31840000  0.41400000  0.29560000  1.0
  O2-  O98  1  0.11840000  0.52280000  0.20440000  1.0
  O2-  O99  1  0.18160000  0.97720000  0.59560000  1.0
  O2-  O100  1  0.11840000  0.09560000  0.91400000  1.0
  O2-  O101  1  0.18160000  0.70440000  0.58600000  1.0
  O2-  O102  1  0.31840000  0.40440000  0.02280000  1.0
  O2-  O103  1  0.38160000  0.79560000  0.47720000  1.0
  O2-  O104  1  0.70440000  0.18160000  0.08600000  1.0
  O2-  O105  1  0.09560000  0.11840000  0.41400000  1.0
  O2-  O106  1  0.79560000  0.38160000  0.97720000  1.0
  O2-  O107  1  0.40440000  0.31840000  0.52280000  1.0
  O2-  O108  1  0.09560000  0.47720000  0.68160000  1.0
  O2-  O109  1  0.70440000  0.02280000  0.61840000  1.0
  O2-  O110  1  0.40440000  0.58600000  0.88160000  1.0
  O2-  O111  1  0.79560000  0.91400000  0.81840000  1.0
  O2-  O112  1  0.52280000  0.90440000  0.81840000  1.0
  O2-  O113  1  0.97720000  0.29560000  0.88160000  1.0
  O2-  O114  1  0.08600000  0.20440000  0.68160000  1.0
  O2-  O115  1  0.41400000  0.59560000  0.61840000  1.0
  O2-  O116  1  0.08600000  0.38160000  0.40440000  1.0
  O2-  O117  1  0.97720000  0.18160000  0.09560000  1.0
  O2-  O118  1  0.41400000  0.31840000  0.79560000  1.0
  O2-  O119  1  0.52280000  0.11840000  0.70440000  1.0
  O2-  O120  1  0.61840000  0.91400000  0.09560000  1.0
  O2-  O121  1  0.68160000  0.58600000  0.70440000  1.0
  O2-  O122  1  0.88160000  0.47720000  0.79560000  1.0
  O2-  O123  1  0.81840000  0.02280000  0.40440000  1.0
  O2-  O124  1  0.88160000  0.90440000  0.08600000  1.0
  O2-  O125  1  0.81840000  0.29560000  0.41400000  1.0
  O2-  O126  1  0.68160000  0.59560000  0.97720000  1.0
  O2-  O127  1  0.61840000  0.20440000  0.52280000  1.0
